#!/sbin/sh
##########################################################################################
#
# Magisk Module Template Install Script
# by topjohnwu
#
##########################################################################################

# Detect whether in boot mode
ps | grep zygote | grep -v grep >/dev/null && BOOTMODE=true || BOOTMODE=false
$BOOTMODE || ps -A 2>/dev/null | grep zygote | grep -v grep >/dev/null && BOOTMODE=true

# This path should work in any cases
TMPDIR=/dev/tmp
MOUNTPATH=/magisk
IMG=/data/magisk.img
if $BOOTMODE; then
  MOUNTPATH=/dev/magisk_merge
  IMG=/data/magisk_merge.img
fi
INSTALLER=$TMPDIR/install
MAGISKBIN=/data/magisk

# Default permissions
umask 022

##########################################################################################
# Flashable update-binary preparation
##########################################################################################

OUTFD=$2
ZIP=$3

ui_print() {
  if $BOOTMODE; then
    echo "$1"
  else
    echo -n -e "ui_print $1\n" >> /proc/self/fd/$OUTFD
    echo -n -e "ui_print\n" >> /proc/self/fd/$OUTFD
  fi
}

require_new_magisk() {
  ui_print "***********************************"
  ui_print "! $MAGISKBIN isn't setup properly!"
  ui_print "! Please install Magisk v13.5+!"
  ui_print "***********************************"
  exit 1
}

# Mount /data to access MAGISKBIN
mount /data 2>/dev/null

# MAGISKBIN must exist, binaries and utility functions are placed there
[ -f $MAGISKBIN/magisk -a -f $MAGISKBIN/busybox -a -f $MAGISKBIN/util_functions.sh ] || require_new_magisk

# Load utility fuctions
. $MAGISKBIN/util_functions.sh
[ ! -z $SCRIPT_VERSION -a $SCRIPT_VERSION -ge 1350 ] || require_new_magisk
get_outfd

# Detect version and architecture
api_level_arch_detect

# You can get the Android API version from $API, the CPU architecture from $ARCH
# Useful if you are creating Android version / platform dependent mods

# We need busybox/binaries to be setup
$BOOTMODE && boot_actions || recovery_actions

rm -rf $TMPDIR 2>/dev/null
mkdir -p $INSTALLER
unzip -o "$ZIP" module.prop config.sh 'common/*' -d $INSTALLER 2>/dev/null

##########################################################################################
# Prepare
##########################################################################################

[ ! -f $INSTALLER/config.sh ] && abort "! Unable to extract zip file!"

. $INSTALLER/config.sh

MODPATH=$MOUNTPATH/$MODID

# Print mod name
print_modname

# Please leave this message in your flashable zip for credits :)
ui_print "******************************"
ui_print "Powered by Magisk (@topjohnwu)"
ui_print "******************************"

ui_print "- Mounting /system, /vendor, /data, /cache"
mount -o ro /system 2>/dev/null
mount -o ro /vendor 2>/dev/null
mount /data 2>/dev/null
mount /cache 2>/dev/null

[ ! -f /data/magisk.img ] && abort "! Magisk is not installed"
$BOOTMODE && ! is_mounted /magisk && abort "! Magisk is not activated!"
[ ! -f /system/build.prop ] && abort "! /system could not be mounted!"

##########################################################################################
# Install
##########################################################################################
request_zip_size_check "$ZIP"

ui_print "- Extracting module files"
unzip -o "$ZIP" "app/*" "drivers/*" -d $INSTALLER 2>/dev/null

if [ -f "$IMG" ]; then
  ui_print "- $IMG detected!"
  image_size_check $IMG
  if [ "$reqSizeM" -gt "$curFreeM" ]; then
    newSizeM=$(((reqSizeM + curUsedM) / 32 * 32 + 64))
    ui_print "- Resizing $IMG to ${newSizeM}M"
    $MAGISKBIN/magisk --resizeimg $IMG $newSizeM
  fi
else
  newSizeM=$((reqSizeM / 32 * 32 + 64));
  ui_print "- Creating $IMG with size ${newSizeM}M"
  $MAGISKBIN/magisk --createimg $IMG $newSizeM
fi

ui_print "- Mounting $IMG to $MOUNTPATH"
MAGISKLOOP=`$MAGISKBIN/magisk --mountimg $IMG $MOUNTPATH`
is_mounted $MOUNTPATH || abort"! $IMG mount failed..."

# Create mod paths
rm -rf $MODPATH 2>/dev/null
mkdir -p $MODPATH

# create skeleton files and dirs
ui_print "* Creating files and directories"
mkdir -p $MODPATH/system/lib/soundfx 2>/dev/null
mkdir -p $MODPATH/system/etc 2>/dev/null
mkdir -p $MODPATH/system/vendor/etc 2>/dev/null
mkdir -p $MODPATH/system/priv-app/ViPER4Android 2>/dev/null

# copy app
ui_print "* Installing V4A Materialized app"
APP=$INSTALLER/app/ViPER4Android.apk
if [ -f $APP ]; then
	cp -af $APP $MODPATH/system/priv-app/ViPER4Android/ViPER4Android.apk
else
	ui_print "!! ERROR !! Application package not found!"
	exit 255
fi

# determine CPU arch and driver
ui_print "* Determining your device's arch and installing driver"

DRIVER=libv4a_fx_jb_NEON
LIB=$INSTALLER/drivers/libv4a_fx_jb_NEON.so

if [ "$ARCH" = "x86" -o "$ARCH" = "x64" ]; then
	LIB=$INSTALLER/drivers/libv4a_fx_jb_X86.so
	DRIVER=libv4a_fx_jb_X86
fi

ui_print "-> Your device is $ARCH, using $DRIVER"

# copy driver
ui_print "* Copying V4A driver"
if [ -f $LIB ]; then
	cp -af $LIB $MODPATH/system/lib/soundfx/libv4a_fx_ics.so
else
	ui_print "!! ERROR !! Driver library not found!"
	exit 255
fi

# modify configurations
ui_print "* Modifying audio_effects.conf"
cp -af /system/etc/audio_effects.conf $MODPATH/system/etc/audio_effects.conf 2>/dev/null
cp -af /system/etc/htc_audio_effects.conf $MODPATH/system/etc/htc_audio_effects.conf 2>/dev/null
cp -af /system/vendor/etc/audio_effects.conf $MODPATH/system/vendor/etc/audio_effects.conf 2>/dev/null

CONFIG_FILE=$MODPATH/system/etc/audio_effects.conf
HTC_CONFIG_FILE=$MODPATH/system/etc/htc_audio_effects.conf
VENDOR_CONFIG=$MODPATH/system/vendor/etc/audio_effects.conf

if [ -f "$CONFIG_FILE" ]; then
  sed -i 's/^libraries {/libraries {\n  v4a_fx {\n    path \/system\/lib\/soundfx\/libv4a_fx_ics.so\n  }/g' $CONFIG_FILE
  sed -i 's/^effects {/effects {\n  v4a_standard_fx {\n    library v4a_fx\n    uuid 41d3c987-e6cf-11e3-a88a-11aba5d5c51b\n  }/g' $CONFIG_FILE
fi

if [ -f "$HTC_CONFIG_FILE" ]; then
  sed -i 's/^libraries {/libraries {\n  v4a_fx {\n    path \/system\/lib\/soundfx\/libv4a_fx_ics.so\n  }/g' $HTC_CONFIG_FILE
  sed -i 's/^effects {/effects {\n  v4a_standard_fx {\n    library v4a_fx\n    uuid 41d3c987-e6cf-11e3-a88a-11aba5d5c51b\n  }/g' $HTC_CONFIG_FILE
fi

if [ -f "$VENDOR_CONFIG" ]; then
  sed -i 's/^libraries {/libraries {\n  v4a_fx {\n    path \/system\/lib\/soundfx\/libv4a_fx_ics.so\n  }/g' $VENDOR_CONFIG
  sed -i 's/^effects {/effects {\n  v4a_standard_fx {\n    library v4a_fx\n    uuid 41d3c987-e6cf-11e3-a88a-11aba5d5c51b\n  }/g' $VENDOR_CONFIG
fi

# Handle replace folders
for TARGET in $REPLACE; do
  mktouch $MODPATH$TARGET/.replace
done

# Auto Mount
$AUTOMOUNT && touch $MODPATH/auto_mount

# prop files
$PROPFILE && cp -af $INSTALLER/common/system.prop $MODPATH/system.prop

# Module info
cp -af $INSTALLER/module.prop $MODPATH/module.prop
if $BOOTMODE; then
  # Update info for Magisk Manager
  mktouch /magisk/$MODID/update
  cp -af $INSTALLER/module.prop /magisk/$MODID/module.prop
fi

# post-fs-data mode scripts
$POSTFSDATA && cp -af $INSTALLER/common/post-fs-data.sh $MODPATH/post-fs-data.sh

# service mode scripts
$LATESTARTSERVICE && cp -af $INSTALLER/common/service.sh $MODPATH/service.sh

ui_print "- Setting permissions"
set_permissions

##########################################################################################
# Finalizing
##########################################################################################

$MAGISKBIN/magisk --umountimg $MOUNTPATH $MAGISKLOOP
rmdir $MOUNTPATH

# Shrink the image if possible
image_size_check $IMG
newSizeM=$((curUsedM / 32 * 32 + 64))
if [ $curSizeM -gt $newSizeM ]; then
  ui_print "- Shrinking $IMG to ${newSizeM}M"
  $MAGISKBIN/magisk --resizeimg $IMG $newSizeM
fi

$BOOTMODE || recovery_cleanup
rm -rf $TMPDIR

ui_print "- Done"
exit 0
